7

C      -1.5076211821  -0.0801457519   0.0017666679  
H      -2.0071548775  -1.1938974911   1.6338795030  
H      -2.0674895089  -1.0968729144  -1.6779608521  
N       1.3391575517   0.0355938232  -0.0043880199  
H       1.9994639947   1.1738887029  -1.3857492638  
H       1.9924844118   0.6822551914   1.7021673569  
H       2.1027110241  -1.6906192765  -0.2760296853  