9

C      -2.3936333879  -0.5339933094  -0.0033448670
H      -2.3356691271  -1.8219141894   1.5847014247
H      -2.4877584227  -1.6674061104  -1.7144481926
C      -0.0007944661   1.0896716855  -0.0161140204
H       0.0188130841   2.3204827523  -1.6618399478
H       0.0002804343   2.3050472369   1.6398229229
C       2.3963539492  -0.5392727834   0.0058850808
H       2.3472222564  -1.7890507887   1.6360087709
H       2.4494409638  -1.7220874016  -1.6717337206