7

C       1.5229134657  -0.0801518371  -0.0004535595
H       2.0468814845  -1.1506795375  -1.6571142158
H       2.0412237480  -1.1314063916   1.6699999648
N      -1.3468388269   0.0306967655  -0.0000015641
H      -2.0020914079   0.9618177248   1.5331255283
H      -2.0061898467   0.9489845205  -1.5418484086
H      -2.1331727442  -1.7105548644   0.0075168181